instances/data_GOC/Phase_0_Modified_IEEE14/scenario_52/powersystem.raw
0,   100.00, 33, 0, 0, 60.00     / PSS(R)E-33.7    WED, OCT 05 2016  16:23


     1,'BUS-1       ', 100.0000,3,   1,   2,   1,1.06000,   0.0000,1.10000,0.90000,1.10000,0.90000
     2,'BUS-2       ', 100.0000,2,   1,   2,   1,1.04500,  -4.9826,1.10000,0.90000,1.10000,0.90000
     3,'BUS-3       ', 100.0000,2,   1,   2,   1,1.01000, -12.7251,1.10000,0.90000,1.10000,0.90000
     4,'BUS-4       ', 100.0000,1,   1,   2,   1,1.01767, -10.3129,1.10000,0.90000,1.10000,0.90000
     5,'BUS-5       ', 100.0000,1,   1,   2,   1,1.01951,  -8.7739,1.10000,0.90000,1.10000,0.90000
     6,'BUS-6       ', 100.0000,2,   1,   2,   1,1.07000, -14.2210,1.10000,0.90000,1.10000,0.90000
     7,'BUS-7       ', 100.0000,1,   1,   2,   1,1.06152, -13.3596,1.10000,0.90000,1.10000,0.90000
     8,'BUS-8       ', 100.0000,2,   1,   2,   1,1.09000, -13.3596,1.10000,0.90000,1.10000,0.90000
     9,'BUS-9       ', 100.0000,1,   1,   2,   1,1.05593, -14.9385,1.10000,0.90000,1.10000,0.90000
    10,'BUS-10      ', 100.0000,1,   1,   2,   1,1.05098, -15.0973,1.10000,0.90000,1.10000,0.90000
    11,'BUS-11      ', 100.0000,1,   1,   2,   1,1.05691, -14.7906,1.10000,0.90000,1.10000,0.90000
    12,'BUS-12      ', 100.0000,1,   1,   2,   1,1.05519, -15.0756,1.10000,0.90000,1.10000,0.90000
    13,'BUS-13      ', 100.0000,1,   1,   2,   1,1.05038, -15.1563,1.10000,0.90000,1.10000,0.90000
    14,'BUS-14      ', 100.0000,1,   1,   2,   1,1.03553, -16.0336,1.10000,0.90000,1.10000,0.90000
0 / END OF BUS DATA, BEGIN LOAD DATA
     2,'1 ',1,   1,   2,25.97833784318529,13.312110317354088,0.0,0.0,0.0,0.0,   1,1,0
     3,'1 ',1,   1,   2,121.5806105990801,16.080681765545158,0.0,0.0,0.0,0.0,   1,1,0
     4,'1 ',1,   1,   2,50.513440022068096,-4.490368383885361,0.0,0.0,0.0,0.0,   1,1,0
     5,'1 ',1,   1,   2,7.498671955764293,1.506808906197548,0.0,0.0,0.0,0.0,   1,1,0
     6,'1 ',1,   1,   2,8.143611487820744,7.506754738977178,0.0,0.0,0.0,0.0,   1,1,0
     9,'1 ',1,   1,   2,35.282004327047616,17.369082491798327,0.0,0.0,0.0,0.0,   1,1,0
    10,'1 ',1,   1,   2,7.697334130201488,4.393602336654439,0.0,0.0,0.0,0.0,   1,1,0
    11,'1 ',1,   1,   2,2.750510948034935,1.8169008435029534,0.0,0.0,0.0,0.0,   1,1,0
    12,'1 ',1,   1,   2,5.999448268245905,1.469674822986126,0.0,0.0,0.0,0.0,   1,1,0
    13,'1 ',1,   1,   2,15.823383030015975,6.431159234587103,0.0,0.0,0.0,0.0,   1,1,0
    14,'1 ',1,   1,   2,15.584875368857755,3.817539057927206,0.0,0.0,0.0,0.0,   1,1,0
0 / END OF LOAD DATA, BEGIN FIXED SHUNT DATA
     9,' 1',1,     0.000,    19.000
0 / END OF FIXED SHUNT DATA, BEGIN GENERATOR DATA
     1,'1 ',   232.393,   -16.549,76.15615234710276,-125.71726366877559,1.06000,     0,   100.000, 0.00000E+0, 1.00000E+0, 0.00000E+0, 0.00000E+0,1.00000,1,  100.0,258.57281458821143,152.07514925115396,   1,1.0000
     2,'1 ',    40.000,    43.557,37.93710691621527,-41.43308088276535,1.04500,     0,   100.000, 0.00000E+0, 1.00000E+0, 0.00000E+0, 0.00000E+0,1.00000,1,  100.0,171.4653581948951,18.881456499919295,   1,1.0000
     3,'1 ',     0.000,    25.075,29.05951391160488,-3.4724888652563095,1.01000,     0,   100.000, 0.00000E+0, 1.00000E+0, 0.00000E+0, 0.00000E+0,1.00000,1,  100.0,104.91215760819614,6.567693360373596,   1,1.0000
     6,'1 ',     0.000,    12.731,25.34129062592983,-11.27430746359751,1.07000,     0,   100.000, 0.00000E+0, 1.00000E+0, 0.00000E+0, 0.00000E+0,1.00000,1,  100.0,86.50021031033248,4.168174406513572,   1,1.0000
     8,'1 ',     0.000,    17.623,26.07729894518852,2.3966282232664504,1.09000,     0,   100.000, 0.00000E+0, 1.00000E+0, 0.00000E+0, 0.00000E+0,1.00000,1,  100.0,71.98550881352274,39.22466269405511,   1,1.0000
0 / END OF GENERATOR DATA, BEGIN BRANCH DATA
     1,     2,'BL', 1.93800E-2, 5.91700E-2,   0.05280,141.6,188.4,188.4,  0.00000,  0.00000,  0.00000,  0.00000,1,1,   0.00,   1,1.0000
     1,     5,'BL', 5.40300E-2, 2.23040E-1,   0.04920,51.6,68.39999999999999,68.39999999999999,  0.00000,  0.00000,  0.00000,  0.00000,1,1,   0.00,   1,1.0000
     2,     3,'BL', 4.69900E-2, 1.97970E-1,   0.04380,210.0,280.8,280.8,  0.00000,  0.00000,  0.00000,  0.00000,1,1,   0.00,   1,1.0000
     2,     4,'BL', 5.81100E-2, 1.76320E-1,   0.03400,109.2,145.2,145.2,  0.00000,  0.00000,  0.00000,  0.00000,1,1,   0.00,   1,1.0000
     2,     5,'BL', 5.69500E-2, 1.73880E-1,   0.03460,73.2,98.39999999999999,98.39999999999999,  0.00000,  0.00000,  0.00000,  0.00000,1,1,   0.00,   1,1.0000
     3,     4,'BL', 6.70100E-2, 1.71030E-1,   0.01280,122.39999999999999,162.0,162.0,  0.00000,  0.00000,  0.00000,  0.00000,1,1,   0.00,   1,1.0000
     4,     5,'BL', 1.33500E-2, 4.21100E-2,   0.00000,458.4,610.8,610.8,  0.00000,  0.00000,  0.00000,  0.00000,1,1,   0.00,   1,1.0000
     6,    11,'BL', 9.49800E-2, 1.98900E-1,   0.00000,175.2,232.79999999999998,232.79999999999998,  0.00000,  0.00000,  0.00000,  0.00000,1,1,   0.00,   1,1.0000
     6,    12,'BL', 1.22910E-1, 2.55810E-1,   0.00000,51.6,68.39999999999999,68.39999999999999,  0.00000,  0.00000,  0.00000,  0.00000,1,1,   0.00,   1,1.0000
     6,    13,'BL', 6.61500E-2, 1.30270E-1,   0.00000,176.4,235.2,235.2,  0.00000,  0.00000,  0.00000,  0.00000,1,1,   0.00,   1,1.0000
     7,     8,'BL', 0.00000E+0, 1.76150E-1,   0.00000,56.4,75.6,75.6,  0.00000,  0.00000,  0.00000,  0.00000,1,1,   0.00,   1,1.0000
     9,    10,'BL', 3.18100E-2, 8.45000E-2,   0.00000,255.6,340.8,340.8,  0.00000,  0.00000,  0.00000,  0.00000,1,1,   0.00,   1,1.0000
     9,    14,'BL', 1.27110E-1, 2.70380E-1,   0.00000,48.0,63.599999999999994,63.599999999999994,  0.00000,  0.00000,  0.00000,  0.00000,1,1,   0.00,   1,1.0000
    10,    11,'BL', 8.20500E-2, 1.92070E-1,   0.00000,156.0,208.79999999999998,208.79999999999998,  0.00000,  0.00000,  0.00000,  0.00000,1,1,   0.00,   1,1.0000
    12,    13,'BL', 2.20920E-1, 1.99880E-1,   0.00000,38.4,50.4,50.4,  0.00000,  0.00000,  0.00000,  0.00000,1,1,   0.00,   1,1.0000
    13,    14,'BL', 1.70930E-1, 3.48020E-1,   0.00000,85.2,114.0,114.0,  0.00000,  0.00000,  0.00000,  0.00000,1,1,   0.00,   1,1.0000
0 / END OF BRANCH DATA, BEGIN TRANSFORMER DATA
     4,     7,     0,'BL',1,1,1, 0.00000E+0, 0.00000E+0,2,'            ',1,   1,1.0000,   0,1.0000,   0,1.0000,   0,1.0000,'            '
 0.00000E+0, 2.09120E-1,   100.00
0.97800, 100.000,   0.000,    41.00,    55.00,    55.00, 0,      0, 1.50000, 0.51000, 1.50000, 0.51000, 159, 0, 0.00000, 0.00000,  0.000
1.00000, 100.000
     4,     9,     0,'BL',1,1,1, 0.00000E+0, 0.00000E+0,2,'            ',1,   1,1.0000,   0,1.0000,   0,1.0000,   0,1.0000,'            '
 0.00000E+0, 5.56180E-1,   100.00
0.96900, 100.000,   0.000,    24.00,    31.00,    31.00, 0,      0, 1.50000, 0.51000, 1.50000, 0.51000, 159, 0, 0.00000, 0.00000,  0.000
1.00000, 100.000
     5,     6,     0,'BL',1,1,1, 0.00000E+0, 0.00000E+0,2,'            ',1,   1,1.0000,   0,1.0000,   0,1.0000,   0,1.0000,'            '
 0.00000E+0, 2.52020E-1,   100.00
0.93200, 100.000,   0.000,   116.00,   154.00,   154.00, 0,      0, 1.50000, 0.51000, 1.50000, 0.51000, 159, 0, 0.00000, 0.00000,  0.000
1.00000, 100.000
0 / END OF TRANSFORMER DATA, BEGIN AREA DATA
0 / END OF AREA DATA, BEGIN TWO-TERMINAL DC DATA
0 / END OF TWO-TERMINAL DC DATA, BEGIN VSC DC LINE DATA
0 / END OF VSC DC LINE DATA, BEGIN IMPEDANCE CORRECTION DATA
0 / END OF IMPEDANCE CORRECTION DATA, BEGIN MULTI-TERMINAL DC DATA
0 / END OF MULTI-TERMINAL DC DATA, BEGIN MULTI-SECTION LINE DATA
0 / END OF MULTI-SECTION LINE DATA, BEGIN ZONE DATA
   2,'ZONE_2      '
0 / END OF ZONE DATA, BEGIN INTER-AREA TRANSFER DATA
0 / END OF INTER-AREA TRANSFER DATA, BEGIN OWNER DATA
   1,'1           '
0 / END OF OWNER DATA, BEGIN FACTS DEVICE DATA
0 / END OF FACTS DEVICE DATA, BEGIN SWITCHED SHUNT DATA
0 / END OF SWITCHED SHUNT DATA, BEGIN GNE DATA
0 / END OF GNE DATA, BEGIN INDUCTION MACHINE DATA
0 / END OF INDUCTION MACHINE DATA
Q
